 ****** HSPICE -- G-2012.06 32-BIT (May 27 2012) sparcOS5 ******                
  Copyright (C) 2012 Synopsys, Inc. All Rights Reserved.                        
  Unpublished-rights reserved under US copyright laws.
  This program is protected by law and is subject to the
  terms and conditions of the license agreement from Synopsys.
  Use of this program is your acceptance to be bound by the
  license agreement. HSPICE is the trademark of Synopsys, Inc.
  Input File: sram_45nm_LP_DRF.sp                                               
  Command line options: sram_45nm_LP_DRF.sp -o sram_45nm_LP_DRF.lis
 lic: No 'setenv LM_LICENSE_FILE' in current environment' 
 lic:  
 lic: FLEXlm: v10.8 
 lic: USER:   coimbasn             HOSTNAME: everest.rhod.uc.edu 
 lic: HOSTID: 8300e27a             PID:      25513 
 lic: Using FLEXlm license file: 
 lic: 27000@olympus.ececs.engr.uc.edu 
 lic: Checkout 1 hspice 
 lic: License/Maintenance for hspice will expire on 20-jun-2013/2011.09 
 lic: 1(in_use)/50(total) FLOATING license(s) on SERVER olympus.ececs.engr.uc.ed
 lic:   
 Init: read install configuration file: /opt/CAD/Synopsys/G-2012.06/hspice/hspice/meta.cfg
  **info** (sram_45nm_LP_DRF.sp:191) DC voltage reset to initial transient source value              in source        0:ven1                new dc=  0.0000D+00
  **warning** (sram_45nm_LP_DRF.sp:170) Value of resistance rdummy1 defined is limited to   1.000E-05 (RESMIN). Please specify a valid resistor value or resistor model.
 Warning: Pd = 0 is less than W.

 Warning: Ps = 0 is less than W.

 Warning: Pd = 0 is less than W.

 Warning: Ps = 0 is less than W.

 Warning: Pd = 0 is less than W.

 Warning: Ps = 0 is less than W.

 Warning: Pd = 0 is less than W.

 Warning: Ps = 0 is less than W.

 Warning: Pd = 0 is less than W.

 Warning: Ps = 0 is less than W.

  
      

 **warning** an operating point request at  time=0 and a transient uic
     results in no operating point


 *****************************************************************
 ******  option summary
 ******
 runlvl  = 3         bypass  = 2         
  Opening plot unit= 15
 file=sram_45nm_LP_DRF.pa0                                                     


          ***** job concluded
 ****** HSPICE -- G-2012.06 32-BIT (May 27 2012) sparcOS5 ******                
 ******  
 *sram full electrical schematic by rathna keerthi

  ******  job statistics summary tnom=  25.000 temp=  25.000 *****

  ******  HSPICE Threads Information  ******

  Command Line Threads Count :     1
  Available CPU Count        :     2
  Actual Threads Count       :     1


  ******  Circuit Statistics  ******
  # nodes       =     253 # elements   =     172
  # resistors   =       3 # capacitors =       2 # inductors   =       0
  # mutual_inds =       0 # vccs       =       0 # vcvs        =      70
  # cccs        =       0 # ccvs       =       0 # volt_srcs   =      27
  # curr_srcs   =       0 # diodes     =       0 # bjts        =       0
  # jfets       =       0 # mosfets    =      70 # U elements  =       0
  # T elements  =       0 # W elements =       0 # B elements  =       0
  # S elements  =       0 # P elements =       0 # va device   =       0
  # vector_srcs =       0 # N elements =       0


  ******  Runtime Statistics (seconds)  ******

  analysis           time    # points   tot. iter  conv.iter
  op point           0.00           1           0
  transient         12.00          52         394         153 rev=         5
  readin             0.21
  errchk             0.54
  setup              0.02
  output             0.00


           peak memory used         78.66 megabytes
           total cpu time           12.84 seconds
           total elapsed time       14.82 seconds
           job started at     18:01:28 01/17/2013
           job ended   at     18:01:43 01/17/2013


 lic: Release hspice token(s) 
 lic: total license checkout elapse time:        0.28(s)
